53

O      14.29      11.24      19.31
O      11.21      17.92      20.47
O      18.70      11.01      21.13
O      17.28      18.28      28.64
C      19.73      16.87      29.15
C      18.73      16.51      28.11
C      17.67      17.36      27.77
C      16.81      17.02      26.72
C      16.94      15.86      26.02
C      18.01      15.03      26.35
C      18.88      15.36      27.36
C      16.06      15.50      24.87
C      14.98      16.35      24.57
C      14.15      16.08      23.46
C      14.45      14.99      22.66
C      15.50      14.16      22.94
C      16.29      14.43      24.06
C      13.02      17.01      23.12
C      12.57      17.94      24.06
C      11.55      18.81      23.75
C      10.93      18.79      22.48
C      11.40      17.88      21.55
C      12.44      17.00      21.87
C       9.86      19.76      22.12
C      15.86      13.04      22.03
C      14.93      12.58      21.08
C      15.26      11.58      20.20
C      16.53      11.01      20.22
C      17.45      11.45      21.16
C      17.14      12.45      22.03
C      16.90       9.93      19.25
H      16.13      17.61      26.50
H      18.14      14.24      25.88
H      14.81      17.10      25.10
H      13.92      14.82      21.91
H      17.00      13.87      24.27
H      12.96      17.97      24.90
H      12.74      16.40      21.23
H      14.08      12.96      21.05
H      17.78      12.75      22.64
H      20.43      14.54      27.26
H      10.78      20.32      24.37
H      14.63      10.92      18.64
H      19.14      11.48      20.63
H      17.81      18.91      28.63
O      19.51      17.94      29.83
O      20.69      16.12      29.34
O       9.65      20.70      22.93
O       9.17      19.56      21.11
O      16.10       9.66      18.31
O      17.95       9.29      19.46
O      19.73      14.44      27.68
O      11.24      19.72      24.70
