53

C       4.55      18.08       9.79
O      -1.19      22.85       9.59
O       8.17      18.08      13.23
O      -0.05      23.23      11.45
O      -0.20      21.27       7.78
C       3.61      15.51       6.52
O       1.63      21.51      12.19
O       9.13      14.23      10.78
C       2.53      19.47       9.36
C       1.57      19.93       8.42
C       0.69      20.93       8.75
C       0.71      21.51      10.02
C       1.65      21.06      10.95
C       2.53      20.06      10.64
C      -0.25      22.59      10.40
C       2.36      15.52       5.94
C       2.61      12.75       3.35
O       3.43      11.82       3.14
C       4.55      14.57       6.07
O       1.60      12.96       2.67
C       4.24      13.70       5.04
C       2.98      13.72       4.43
H       6.99      14.91       9.63
H       6.37      18.27      11.63
H       5.60      15.42       8.30
C       2.04      14.63       4.90
H       4.76      18.65      10.50
H       5.39      14.54       6.46
H       1.72      16.12       6.24
H       1.55      19.56       7.57
H       3.13      19.76      11.28
H       7.75      17.97      13.92
H       4.86      12.19       4.28
H      -0.87      21.59       8.13
H       1.12      21.04      12.64
H       9.12      13.61      11.31
O       5.19      12.79       4.73
O       0.96      14.59       4.71
H       2.40      17.69       7.42
C       5.06      16.16       8.47
C       3.95      16.43       7.64
C       9.64      15.65      13.23
C       8.60      16.01      12.23
C       8.26      15.15      11.17
C       7.22      15.50      10.31
C       6.51      16.65      10.44
C       6.84      17.48      11.51
C       7.85      17.15      12.38
C       5.36      17.01       9.56
O      10.32      14.57      13.01
O       9.84      16.39      14.19
C       3.15      17.52       7.95
C       3.43      18.36       9.00
