53

C       8.87      25.46      16.98
C      10.15      26.05      16.98
O       6.50      30.95       9.19
O       5.32      29.13       9.67
O      16.36      33.70      16.08
O      16.84      32.56      17.91
O       9.92      22.67      20.70
O       8.06      22.29      19.56
O       6.28      27.44      11.34
O      14.77      32.73      14.32
O      11.73      24.25      19.71
O      14.80      30.93      18.55
O       7.31      24.01      17.88
O       8.73      31.29      10.38
H      11.21      30.10      13.91
H       9.01      26.87      14.75
H      13.05      30.98      14.12
H      13.27      29.40      17.79
H      11.94      25.96      17.96
H      15.23      33.33      14.65
C       9.72      27.44      14.95
C      13.44      30.95      14.96
C       6.28      29.87       9.87
C       7.28      29.51      10.91
C       8.34      30.37      11.24
C       9.20      30.03      12.29
C       9.07      28.87      13.00
H       9.88      30.61      12.52
H       7.88      27.25      13.14
C       9.95      28.51      14.15
H      12.09      27.83      17.11
C      11.87      29.09      15.56
C      11.56      28.00      16.36
C      11.04      29.36      14.45
C       8.00      28.04      12.67
H       8.23      25.76      16.38
C       7.13      28.37      11.66
C      14.47      31.82      15.27
C      15.08      31.80      16.53
C      14.61      30.89      17.47
H       8.20      31.91      10.38
C      10.51      27.16      16.08
C      12.99      30.01      15.90
H       5.58      27.55      11.76
C      10.76      24.59      18.82
C       9.49      24.01      18.80
H       6.87      24.48      18.39
H      11.38      23.93      20.38
C       9.11      22.93      19.76
C      13.57      30.00      17.15
C       8.56      24.46      17.86
C      16.16      32.77      16.89
C      11.09      25.59      17.94
