53

H      25.53       3.12      21.41
H      26.14       5.13      24.78
H      26.92       1.80      21.92
H      30.12       0.92      24.19
H      27.76       4.00      25.15
H      27.13      -0.04      21.05
H      30.80      -0.27      22.62
H      30.97       1.07      26.06
H      29.38       4.78      26.27
H      24.77       7.42      24.47
H      27.66      -2.23      18.70
H      33.38       1.62      28.10
H      31.39       6.14      27.54
H      23.39       4.80      20.11
O      33.71       3.09      29.35
C      22.87       6.73      22.15
C      23.92       5.72      22.51
C      24.25       4.66      21.66
C      25.30       3.81      22.00
C      26.01       3.94      23.16
C      25.67       5.00      23.98
C      24.66       5.88      23.66
C      27.15       3.05      23.51
C      27.46       1.97      22.66
C      28.57       1.14      22.93
O      22.20       6.51      21.07
O      29.09      -3.36      18.32
O      30.92      -3.83      19.46
C      28.90       0.01      22.01
O      32.56       4.94      29.73
O      24.34       6.73      24.58
C      29.37       1.44      24.02
O      27.32      -1.77      19.29
C      30.48      -1.60      21.14
C      29.08       2.50      24.86
C      30.16      -0.57      22.02
C      27.97      -0.44      21.08
O      32.71       1.28      27.78
C      28.27      -1.46      20.20
C      29.54      -2.08      20.22
O      31.55      -1.79      21.10
C      29.90      -3.15      19.25
C      29.99       2.86      25.97
C      31.83       2.25      27.43
C      27.96       3.29      24.58
C      30.94       1.92      26.44
C      29.99       4.14      26.56
C      30.87       4.45      27.57
O      23.38       4.27      20.74
C      32.77       3.90      29.09
O      30.89       5.69      28.01
O      22.68       7.68      22.90
C      31.81       3.52      28.01
