53

C       5.95      23.64      10.48
C       3.43      23.41      13.26
C       6.08      21.43      11.43
C      12.29      17.43      10.03
C       4.51      23.03      12.30
C       4.95      23.95      11.36
C      10.00      25.23       4.41
C      11.38      17.90      10.97
H      11.10      22.63       6.02
H       7.74      24.64       6.63
H      10.59      21.31       7.41
H       8.32      20.43      10.61
H       7.36      23.50       8.25
H      11.47      19.47       7.62
H       9.89      19.24      11.29
H       6.45      20.58      11.46
H       6.25      24.29       9.87
H       8.04      26.93       5.26
H      13.82      17.28       8.15
H       4.42      21.13      13.87
H       4.97      25.65      11.88
H      12.40      24.31       3.88
O       9.62      27.19       3.17
C       9.00      22.56       7.64
C       9.58      20.65       9.06
O       7.93      26.24       4.83
C       7.66      22.01       9.57
C      10.50      19.52       9.40
C      10.37      26.24       3.36
O      11.44      26.02       2.69
C      10.86      24.17       4.74
O      14.19      16.15       9.58
O      13.05      15.67      11.41
O       3.16      22.60      14.20
C       8.86      25.39       5.16
O       2.78      24.45      13.05
C      10.52      23.32       5.79
O       4.74      20.79      13.20
O      11.42      17.71      12.04
C       9.36      23.44       6.50
C       7.93      22.80       8.45
C       8.53      24.51       6.16
C      11.44      19.07       8.46
C       9.85      21.48       7.95
O      13.22      17.74       7.81
C       8.49      20.95       9.86
C      10.50      18.94      10.65
O       4.51      25.20      11.38
C       6.54      22.37      10.48
O      11.78      23.78       3.88
C       5.08      21.76      12.32
C      12.31      18.05       8.76
C      13.26      16.36      10.39
