53

C       9.93      23.51      11.85
C      11.06      22.72      11.58
C      10.11      26.00       9.01
C      11.05      26.45       8.07
C      10.75      27.47       7.20
C       9.48      28.09       7.22
C       8.54      27.62       8.13
C       8.86      26.58       9.01
C       9.12      29.16       6.25
C       9.03      23.15      12.97
C       8.08      24.09      13.43
C       7.19      23.76      14.43
C       7.21      22.49      15.00
C       8.15      21.57      14.56
C       9.03      21.88      13.56
C       6.25      22.12      16.08
H      13.49      22.89       8.40
H      12.88      20.88      11.77
H      12.10      24.21       8.91
H       8.90      25.09      11.19
H      11.26      22.02      12.14
H      11.89      26.05       8.04
H       8.22      26.28       9.62
H       8.05      24.94      13.06
H       9.63      21.23      13.26
H      14.25      18.59      11.47
H      11.36      28.24       5.69
H       5.63      24.39      15.09
H       7.62      19.87      14.54
H      15.63      21.21       7.11
O      16.82      19.50       8.07
O      16.34      18.33       9.89
O       9.93      29.37       5.31
O       8.10      29.85       6.46
O       5.31      22.92      16.35
O       6.46      21.07      16.73
O      14.68      19.29      11.58
O      11.69      27.78       6.29
O       6.31      24.73      14.77
O       7.47      27.81       8.09
O       8.13      20.32      15.00
O      15.63      21.74       7.73
C      16.15      19.29       9.14
C      15.10      20.29       9.50
C      14.77      21.35       8.65
C      13.72      22.20       8.99
C      13.01      22.08      10.15
C      13.34      21.01      10.98
C      14.35      20.14      10.65
C      11.86      22.96      10.51
C      11.56      24.04       9.66
C      10.45      24.87       9.93
C       9.65      24.57      11.02
