53

C       6.73      22.15      22.87
C       5.72      22.51      23.92
C       4.66      21.66      24.25
C       3.81      22.00      25.30
C       3.94      23.16      26.01
C       5.00      23.98      25.67
C       5.88      23.66      24.66
C       3.05      23.51      27.15
C       1.97      22.66      27.46
C       1.14      22.93      28.57
C       1.44      24.02      29.37
C       2.50      24.86      29.08
C       3.29      24.58      27.96
C       0.01      22.01      28.90
C      -0.44      21.08      27.97
C      -1.46      20.20      28.27
C      -2.08      20.22      29.54
C      -1.60      21.14      30.48
C      -0.57      22.02      30.16
C      -3.15      19.25      29.90
C       2.86      25.97      29.99
C       1.92      26.44      30.94
C       2.25      27.43      31.83
C       3.52      28.01      31.81
C       4.45      27.57      30.87
C       4.14      26.56      29.99
C       3.90      29.09      32.77
H       3.12      21.41      25.53
H       5.13      24.78      26.14
H       1.80      21.92      26.92
H       0.92      24.19      30.12
H       4.00      25.15      27.76
H      -0.04      21.05      27.13
H      -0.27      22.62      30.80
H       1.07      26.06      30.97
H       4.78      26.27      29.38
H       7.42      24.47      24.77
H      -2.23      18.70      27.66
H       1.62      28.10      33.38
H       6.14      27.54      31.39
H       4.80      20.11      23.39
O       6.51      21.07      22.20
O       7.68      22.90      22.68
O      -3.36      18.32      29.09
O      -3.83      19.46      30.92
O       3.09      29.35      33.71
O       4.94      29.73      32.56
O       6.73      24.58      24.34
O      -1.77      19.29      27.32
O       1.28      27.78      32.71
O      -1.79      21.10      31.55
O       5.69      28.01      30.89
O       4.27      20.74      23.38
