53

O       2.69      11.44       0.01
O       3.17       9.62       1.18
O       9.58      14.19      -9.86
O      11.41      13.05     -10.34
O      14.20       3.16      -3.41
O      13.05       2.78      -1.56
O       4.83       7.93       0.22
C       3.36      10.37       0.22
C       4.41      10.00      -0.78
C       4.74      10.86      -1.84
C       5.79      10.52      -2.69
C       6.50       9.36      -2.57
O       3.88      11.78      -2.23
C       5.16       8.86      -0.63
C       6.16       8.53      -1.50
C       7.95       9.85      -4.53
C       9.06       9.58      -5.36
C       9.86       8.49      -5.06
C       9.57       7.66      -4.01
C       7.64       9.00      -3.45
C       8.45       7.93      -3.22
C       8.46      11.44      -6.94
C       9.40      10.50      -6.49
C      10.03      12.29      -8.58
C      10.97      11.38      -8.11
C      10.65      10.50      -7.07
C       8.76      12.31      -7.96
C      10.39      13.26      -9.65
C      10.48       6.54      -3.64
C      11.43       6.08      -4.58
C      12.32       5.08      -4.25
C      11.36       4.95      -2.06
C      10.48       5.95      -2.37
C      12.30       4.51      -2.98
C      13.26       3.43      -2.61
H       6.02      11.10      -3.38
H       6.63       7.74      -1.37
H       7.41      10.59      -4.70
H      10.61       8.32      -5.58
H       8.25       7.36      -2.51
H       7.62      11.47      -6.54
H      11.29       9.89      -6.77
H      11.46       6.45      -5.43
H       9.87       6.25      -1.72
H       5.26       8.04       0.92
H       8.15      13.82      -8.73
H      13.87       4.42      -4.88
H      11.88       4.97      -0.36
H       3.88      12.40      -1.70
O       7.81      13.22      -8.27
O      13.20       4.74      -5.22
O      12.04      11.42      -8.30
O      11.38       4.51      -0.81
